/*--------------------------------*- C++ -*----------------------------------*\ 
  =========                 | 
  \      /  F ield         | OpenFOAM: The Open Source CFD Toolbox 
   \    /   O peration     | Website:  https://openfoam.org 
    \  /    A nd           | Version:  6 
     \/     M anipulation  | 
\*---------------------------------------------------------------------------*/ 
FoamFile 
{ 
    version     2.0; 
    format      ascii; 
    class       dictionary; 
    object      blockMeshDict; 
} 
// * * * * * * * * * * * * * * * * * * * * * * * * * * * * * * * * * * * * * // 

scale 1; 

vertices
(
    (0.0 0.0 0)
    (21.0 -10.0 0)
    (1.0 -10.0 0)
    (0.0 -10.0 0)
    (-10.0 0.0 0)
    (0.0 10.0 0)
    (1.0 10.0 0)
    (21.0 10.0 0)
    (21.0 -2.3418518518514957 0)
    (21.0 -2.3518518518514955 0)
    (21.0 -2.3618518518514953 0)
    (1.0012600378017007 0.009920297613392722 0)
    (1.0 0.0 0)
    (0.9995795304939004 -0.009991156359222904 0)
    (0.2491459161585219 0.0690666527937967 0)
    (0.25 0.059103192511759835 0)
    (0.25 -0.03927531128700563 0)
    (0.25085408384147806 -0.049238771569042494 0)
    (-0.01 0.0 0)
    (0.0 0.0 1)
    (21.0 -10.0 1)
    (1.0 -10.0 1)
    (0.0 -10.0 1)
    (-10.0 0.0 1)
    (0.0 10.0 1)
    (1.0 10.0 1)
    (21.0 10.0 1)
    (21.0 -2.3418518518514957 1)
    (21.0 -2.3518518518514955 1)
    (21.0 -2.3618518518514953 1)
    (1.0012600378017007 0.009920297613392722 1)
    (1.0 0.0 1)
    (0.9995795304939004 -0.009991156359222904 1)
    (0.2491459161585219 0.0690666527937967 1)
    (0.25 0.059103192511759835 1)
    (0.25 -0.03927531128700563 1)
    (0.25085408384147806 -0.049238771569042494 1)
    (-0.01 0.0 1)
);

blocks
(
    hex (2 1 10 13 21 20 29 32) (490 249 1) simpleGrading (438305.2891119761 125.7704961520834 125.7704961520834 438305.2891119761 0.007387277218945315 0.007387277218945315 0.007387277218945315 0.007387277218945315 1 1 1 1) 
    hex (3 2 13 17 22 21 32 36) (327 249 1) simpleGrading (3.611110971903609e-05 0.46118757099284224 0.46118757099284224 3.611110971903609e-05 0.007404772256583195 0.007387277218945315 0.007387277218945315 0.007404772256583195 1 1 1 1) 
    hex (4 3 17 18 23 22 36 37) (79 249 1) edgeGrading (0.05 1.0 1.0 0.05 0.007387277218945315 0.007404772256583195 0.007404772256583195 0.007387277218945315 1 1 1 1) 
    hex (4 18 14 5 23 37 33 24) (249 79 1) edgeGrading (0.007387277218945315 0.00742324952326918 0.00742324952326918 0.007387277218945315 0.05 1.0 1.0 0.05 1 1 1 1) 
    hex (14 11 6 5 33 30 25 24) (315 249 1) edgeGrading (0.44878364780669044 3.611110971903609e-05 3.611110971903609e-05 0.44878364780669044 134.71189360742417 135.3678724057374 135.3678724057374 134.71189360742417 1 1 1 1) 
    hex (11 8 7 6 30 27 26 25) (490 249 1) simpleGrading (125.7704961520834 438305.2891119761 438305.2891119761 125.7704961520834 135.3678724057374 135.3678724057374 135.3678724057374 135.3678724057374 1 1 1 1) 
    hex (12 9 8 11 31 28 27 30) (490 8 1) simpleGrading (125.7704961520834 1.477455443789063 1) 
    hex (15 12 11 14 34 31 30 33) (315 8 1) egeeGrading (0.5 0.44878364780669044 0.44878364780669044 0.5 1.477455443789063 1.477455443789063 1.477455443789063 1.477455443789063 1 1 1 1) 
    hex (0 15 14 18 19 34 33 37) (79 8 1) edgeGrading (1 1.0 1.0 1 1.477455443789063 1.477455443789063 1.477455443789063 1.477455443789063 1 1 1 1) 
    hex (18 17 16 0 37 36 35 19) (79 8 1) edgeGrading (1.0 1 1 1.0 0.676839362028687 0.676839362028687 0.676839362028687 0.676839362028687 1 1 1 1) 
    hex (17 13 12 16 36 32 31 35) (327 8 1) edgeGrading (0.46118757099284224 0.5 0.5 0.46118757099284224 0.676839362028687 0.676839362028687 0.676839362028687 0.676839362028687 1 1 1 1) 
    hex (13 10 9 12 32 29 28 31) (490 8 1) simpleGrading (125.7704961520834 0.676839362028687 1) 
);

edges
(
    polyLine 11 14
    (
        (0.9946937500356267 0.010733644436380693 0)
        (0.991413912440488 0.011150236711569525 0)
        (0.9881439145063865 0.011565574231909799 0)
        (0.9848850245494556 0.01198607479051466 0)
        (0.9816216372857999 0.012414606658222523 0)
        (0.9783503351954602 0.012843300654548511 0)
        (0.9750816260602294 0.013278254716444766 0)
        (0.9718182271959391 0.013713370929701077 0)
        (0.9685580301218031 0.01415375777933547 0)
        (0.9652946194147821 0.014602071017274287 0)
        (0.9620245921308538 0.015050374902883874 0)
        (0.958772351570419 0.015503718994945626 0)
        (0.9555089340185108 0.015965217339736718 0)
        (0.9522455123470974 0.01642670636263384 0)
        (0.9489820865296689 0.016894798651545213 0)
        (0.9457186565397755 0.01736288164285741 0)
        (0.942456647560036 0.017837360516689237 0)
        (0.939199830997183 0.018312034725912654 0)
        (0.9359349538474686 0.018793525257288606 0)
        (0.9326729599018474 0.019274580475875172 0)
        (0.9294161304684552 0.019762452041716477 0)
        (0.9261429054491126 0.02025178265066866 0)
        (0.922887546012764 0.020739422744406613 0)
        (0.919629233528487 0.021234110651557878 0)
        (0.9163657784133241 0.021728567112128977 0)
        (0.9131104334413273 0.022229395988851895 0)
        (0.9098438209977825 0.022731951749397263 0)
        (0.906575706566182 0.023234738468204168 0)
        (0.90330248154684 0.023737294228749567 0)
        (0.9000373710913505 0.024239619031033464 0)
        (0.8967805288749493 0.02474066673564089 0)
        (0.8935236821730411 0.025248317824041303 0)
        (0.890247303987858 0.02575900340832502 0)
        (0.8869806915443144 0.02626155916887038 0)
        (0.8837238448424062 0.0267692102572707 0)
        (0.8804572323988602 0.0272783785936128 0)
        (0.8771906199553154 0.027787546929954766 0)
        (0.8739240075117704 0.02829671526629687 0)
        (0.8706573950682255 0.028805883602638846 0)
        (0.8673892622691955 0.029315288797659003 0)
        (0.8641062806854002 0.029825971423455055 0)
        (0.8608411794201558 0.03032829328381035 0)
        (0.857584332718248 0.03083594437221062 0)
        (0.8543177202747024 0.031345112708552565 0)
        (0.8510511078311583 0.03185428104489467 0)
        (0.847784495387612 0.032363449381236704 0)
        (0.8445178829440676 0.03287261771757873 0)
        (0.8412512705005234 0.03338178605392077 0)
        (0.8379846580569772 0.0338909543902629 0)
        (0.8347082798717949 0.03440163997454665 0)
        (0.8314416674282491 0.034904195735092014 0)
        (0.8281848207263425 0.03541184682349224 0)
        (0.8249084425411591 0.03592253240777621 0)
        (0.8216418300976145 0.03642508816832156 0)
        (0.8183737064757682 0.03693449040485386 0)
        (0.8150907204195278 0.0374385512794086 0)
        (0.8118353801911824 0.037939368025754476 0)
        (0.8085687677476382 0.03844853636209651 0)
        (0.805282610390214 0.03895409902946016 0)
        (0.8020145051618542 0.039450270247151156 0)
        (0.7987412801425114 0.03995282600769654 0)
        (0.7954761604837821 0.04044854115950302 0)
        (0.7922080552554225 0.04095132495299062 0)
        (0.7889250603319008 0.04144875486191711 0)
        (0.7856501479290889 0.04194595332426333 0)
        (0.782372282478347 0.042436974448429504 0)
        (0.779099057459005 0.0429263050573817 0)
        (0.7758324450154598 0.04341563566633382 0)
        (0.7725592199961178 0.04390496627528592 0)
        (0.7692828245424213 0.04439575592734881 0)
        (0.7659983684493583 0.04488013677507324 0)
        (0.7627265871771636 0.04536264178434163 0)
        (0.7594501831168451 0.045846800343163394 0)
        (0.7561657370077971 0.04632454445659031 0)
        (0.7528925119884541 0.04680064991394913 0)
        (0.7496207121781273 0.047276547963375264 0)
        (0.7463442996163131 0.04775407537889342 0)
        (0.7430598636461903 0.04822518277607325 0)
        (0.7397768394249348 0.048696076250286255 0)
        (0.7365036144055918 0.04915895655605167 0)
        (0.7332303893862511 0.04962844943761381 0)
        (0.7299361776050933 0.05009429607819114 0)
        (0.7266465377809267 0.0505519337459818 0)
        (0.7233746793766995 0.051008011074201234 0)
        (0.7201014543573575 0.05146427880416993 0)
        (0.7168184137113439 0.05192190981527998 0)
        (0.7135340211089242 0.05237310396773949 0)
        (0.7102541835137862 0.05282275912191178 0)
        (0.7069711441821229 0.05327375619231721 0)
        (0.7036716660659822 0.05371945449943397 0)
        (0.7003984410466408 0.05415588450201302 0)
        (0.6971074694897568 0.05460041498017668 0)
        (0.6938191096524082 0.05503136268711648 0)
        (0.6905458846330659 0.05546779268969551 0)
        (0.6872450957807898 0.05590035713775191 0)
        (0.6839554260466589 0.05632483560723046 0)
        (0.68067558845152 0.05674804045821596 0)
        (0.677385914942817 0.05717250950140539 0)
        (0.6740962376866421 0.05759035653144297 0)
        (0.6708065567101525 0.05800819411313471 0)
        (0.6675070213002549 0.058420636036908155 0)
        (0.6642173293262874 0.058825220056778676 0)
        (0.6609362807723262 0.05922873603378813 0)
        (0.6576399820993583 0.05963330818527719 0)
        (0.6543514844013578 0.060031114159047785 0)
        (0.6510605992128512 0.060429198873205144 0)
        (0.6477544272723643 0.060821684416687796 0)
        (0.6444745896772263 0.0612052138128935 0)
        (0.6411771218133024 0.061596647746577256 0)
        (0.6378720807754321 0.06197571649349424 0)
        (0.6345823668627079 0.06235376217771542 0)
        (0.6312849236103779 0.06272531123798261 0)
        (0.6279984734394429 0.06309561548259522 0)
        (0.6247021498453227 0.06346702725880718 0)
        (0.6213959429941691 0.06383290527837854 0)
        (0.6180996096218772 0.064191063171276 0)
        (0.6148032730459501 0.06454921146778687 0)
        (0.611495996427278 0.06490189780606552 0)
        (0.6081930474524627 0.06524679004957865 0)
        (0.6048977328608472 0.06559156653033053 0)
        (0.6016003654353165 0.06592993310589708 0)
        (0.5982974072975554 0.06626818390061014 0)
        (0.5949911573785205 0.06660080261288492 0)
        (0.5916881903311457 0.06692579930266881 0)
        (0.5883918329461965 0.0672507863238653 0)
        (0.5850780014836067 0.06757019278025259 0)
        (0.5817750326418485 0.0678819237279824 0)
        (0.5784720610085575 0.06819364499189268 0)
        (0.575159172227779 0.06849965479712208 0)
        (0.5718462726222789 0.06879901319341727 0)
        (0.5685432874582336 0.06909084818882405 0)
        (0.5652402996736976 0.06938267345218034 0)
        (0.5619273791045003 0.06966872884097774 0)
        (0.55862438363051 0.06994729971042449 0)
        (0.5553205584331004 0.07022592971756066 0)
        (0.5520010247784075 0.07049867860667787 0)
        (0.5486888821693653 0.07076471337802068 0)
        (0.545375153907413 0.07102422141484249 0)
        (0.5420647792154316 0.07127631985091817 0)
        (0.5387559166789326 0.0715282931019962 0)
        (0.5354529072681455 0.07177370166252733 0)
        (0.532132614022672 0.07201987585669872 0)
        (0.5288137481621903 0.07225268194206329 0)
        (0.5255007685097851 0.07248550049526249 0)
        (0.5221805091622644 0.07270509809190503 0)
        (0.5188708781954491 0.072923966494535 0)
        (0.5155612452875407 0.0731362124712267 0)
        (0.5122416490879844 0.07334907242577517 0)
        (0.5089120786237905 0.07354926197622792 0)
        (0.5056018558723469 0.07374164462847627 0)
        (0.5022756453304554 0.07393454605285446 0)
        (0.49894660293201193 0.07411468848420025 0)
        (0.4956369490200314 0.0742871403805796 0)
        (0.49231681224868906 0.07446011246225828 0)
        (0.4889806002110922 0.07462026705163853 0)
        (0.48566096838090594 0.07477327521231311 0)
        (0.4823347185860956 0.07491963108160817 0)
        (0.47901507621548983 0.0750593346279729 0)
        (0.4756884268545254 0.0751924010193919 0)
        (0.4723525618200455 0.07531914963262176 0)
        (0.4690329032914316 0.07543226353278953 0)
        (0.4657063082781567 0.07554534780099977 0)
        (0.4623700622259729 0.0756454501595881 0)
        (0.4590537865002818 0.07573831087375013 0)
        (0.45571778022465137 0.07583167484201117 0)
        (0.4523880998145275 0.07590511899956795 0)
        (0.44907159878691666 0.07597807702801014 0)
        (0.44574532289256463 0.07604460254549768 0)
        (0.4424190447202801 0.07610447555223904 0)
        (0.4390827676636485 0.07615784098952037 0)
        (0.4357564848442402 0.07619777637801446 0)
        (0.43244019893058594 0.07623756680994202 0)
        (0.4291139140418773 0.07627082965862908 0)
        (0.42577762870836017 0.07629750494207345 0)
        (0.42245134157000985 0.07631083008976688 0)
        (0.41913505385668187 0.07632409024070395 0)
        (0.4158087660883559 0.07633074281620054 0)
        (0.4124824782000311 0.07633074281620056 0)
        (0.40915619043170515 0.07632409024070395 0)
        (0.4058299030233692 0.07631078509115059 0)
        (0.4025036162149929 0.07629082737042028 0)
        (0.39917733024650964 0.0762642170828324 0)
        (0.395861043703031 0.07623105921674397 0)
        (0.39253475944414784 0.07619777637801446 0)
        (0.389198479778909 0.07615108345949535 0)
        (0.38588219548449987 0.07609802790902168 0)
        (0.3825659116697827 0.07604496237006923 0)
        (0.37922943911976503 0.07598489047096786 0)
        (0.37590975704965757 0.07591173157536454 0)
        (0.37259369680180243 0.07583877325618606 0)
        (0.3692574359280729 0.0757586880103802 0)
        (0.36593116988978125 0.07566557253998693 0)
        (0.36262488199145626 0.07557299647883392 0)
        (0.35929831941162554 0.07547983214809798 0)
        (0.3559686588225439 0.07537308545610316 0)
        (0.35264273535501806 0.07526000373454153 0)
        (0.34932610667169156 0.07514061008611227 0)
        (0.34601644135082127 0.07502121872192438 0)
        (0.3426905663146826 0.07489483510854279 0)
        (0.339363916953718 0.0747617687171236 0)
        (0.3360442745831133 0.07462206517075896 0)
        (0.3327280050777619 0.07447615386880103 0)
        (0.329418349465775 0.07433023263393751 0)
        (0.32609210505979286 0.07417722447326293 0)
        (0.32277198915194816 0.07401754002264886 0)
        (0.3194528585132319 0.07385125141102156 0)
        (0.3161366003773191 0.07367881045922008 0)
        (0.3128164500152443 0.07350579667180494 0)
        (0.30949738461790044 0.07331957650376594 0)
        (0.30619109671957573 0.07313442438145976 0)
        (0.3028709199413507 0.07294810191133405 0)
        (0.29955130915044753 0.0727485460888801 0)
        (0.29623170553784245 0.07254895075438056 0)
        (0.2929121093382872 0.07233609079983198 0)
        (0.28960247643037806 0.0721238448231403 0)
        (0.28629284546356365 0.07190497642051044 0)
        (0.2829725861160418 0.07168537882386779 0)
        (0.2796596064636369 0.0714525602706686 0)
        (0.276340740603155 0.07121975418530412 0)
        (0.2730211849742258 0.07097363471157164 0)
        (0.2697108253710984 0.0707281714306017 0)
        (0.26639787604094184 0.0704753776237206 0)
        (0.26308826085699427 0.07021671451061264 0)
        (0.2597745274890812 0.06995718533092088 0)
        (0.25645247151525546 0.06968369850223524 0)
        (0.25314287071656905 0.06940513904791122 0)
        (0.24983903826805895 0.06912649762565257 0)
    )
    polyLine 30 33
    (
        (0.9946937500356267 0.010733644436380693 1)
        (0.991413912440488 0.011150236711569525 1)
        (0.9881439145063865 0.011565574231909799 1)
        (0.9848850245494556 0.01198607479051466 1)
        (0.9816216372857999 0.012414606658222523 1)
        (0.9783503351954602 0.012843300654548511 1)
        (0.9750816260602294 0.013278254716444766 1)
        (0.9718182271959391 0.013713370929701077 1)
        (0.9685580301218031 0.01415375777933547 1)
        (0.9652946194147821 0.014602071017274287 1)
        (0.9620245921308538 0.015050374902883874 1)
        (0.958772351570419 0.015503718994945626 1)
        (0.9555089340185108 0.015965217339736718 1)
        (0.9522455123470974 0.01642670636263384 1)
        (0.9489820865296689 0.016894798651545213 1)
        (0.9457186565397755 0.01736288164285741 1)
        (0.942456647560036 0.017837360516689237 1)
        (0.939199830997183 0.018312034725912654 1)
        (0.9359349538474686 0.018793525257288606 1)
        (0.9326729599018474 0.019274580475875172 1)
        (0.9294161304684552 0.019762452041716477 1)
        (0.9261429054491126 0.02025178265066866 1)
        (0.922887546012764 0.020739422744406613 1)
        (0.919629233528487 0.021234110651557878 1)
        (0.9163657784133241 0.021728567112128977 1)
        (0.9131104334413273 0.022229395988851895 1)
        (0.9098438209977825 0.022731951749397263 1)
        (0.906575706566182 0.023234738468204168 1)
        (0.90330248154684 0.023737294228749567 1)
        (0.9000373710913505 0.024239619031033464 1)
        (0.8967805288749493 0.02474066673564089 1)
        (0.8935236821730411 0.025248317824041303 1)
        (0.890247303987858 0.02575900340832502 1)
        (0.8869806915443144 0.02626155916887038 1)
        (0.8837238448424062 0.0267692102572707 1)
        (0.8804572323988602 0.0272783785936128 1)
        (0.8771906199553154 0.027787546929954766 1)
        (0.8739240075117704 0.02829671526629687 1)
        (0.8706573950682255 0.028805883602638846 1)
        (0.8673892622691955 0.029315288797659003 1)
        (0.8641062806854002 0.029825971423455055 1)
        (0.8608411794201558 0.03032829328381035 1)
        (0.857584332718248 0.03083594437221062 1)
        (0.8543177202747024 0.031345112708552565 1)
        (0.8510511078311583 0.03185428104489467 1)
        (0.847784495387612 0.032363449381236704 1)
        (0.8445178829440676 0.03287261771757873 1)
        (0.8412512705005234 0.03338178605392077 1)
        (0.8379846580569772 0.0338909543902629 1)
        (0.8347082798717949 0.03440163997454665 1)
        (0.8314416674282491 0.034904195735092014 1)
        (0.8281848207263425 0.03541184682349224 1)
        (0.8249084425411591 0.03592253240777621 1)
        (0.8216418300976145 0.03642508816832156 1)
        (0.8183737064757682 0.03693449040485386 1)
        (0.8150907204195278 0.0374385512794086 1)
        (0.8118353801911824 0.037939368025754476 1)
        (0.8085687677476382 0.03844853636209651 1)
        (0.805282610390214 0.03895409902946016 1)
        (0.8020145051618542 0.039450270247151156 1)
        (0.7987412801425114 0.03995282600769654 1)
        (0.7954761604837821 0.04044854115950302 1)
        (0.7922080552554225 0.04095132495299062 1)
        (0.7889250603319008 0.04144875486191711 1)
        (0.7856501479290889 0.04194595332426333 1)
        (0.782372282478347 0.042436974448429504 1)
        (0.779099057459005 0.0429263050573817 1)
        (0.7758324450154598 0.04341563566633382 1)
        (0.7725592199961178 0.04390496627528592 1)
        (0.7692828245424213 0.04439575592734881 1)
        (0.7659983684493583 0.04488013677507324 1)
        (0.7627265871771636 0.04536264178434163 1)
        (0.7594501831168451 0.045846800343163394 1)
        (0.7561657370077971 0.04632454445659031 1)
        (0.7528925119884541 0.04680064991394913 1)
        (0.7496207121781273 0.047276547963375264 1)
        (0.7463442996163131 0.04775407537889342 1)
        (0.7430598636461903 0.04822518277607325 1)
        (0.7397768394249348 0.048696076250286255 1)
        (0.7365036144055918 0.04915895655605167 1)
        (0.7332303893862511 0.04962844943761381 1)
        (0.7299361776050933 0.05009429607819114 1)
        (0.7266465377809267 0.0505519337459818 1)
        (0.7233746793766995 0.051008011074201234 1)
        (0.7201014543573575 0.05146427880416993 1)
        (0.7168184137113439 0.05192190981527998 1)
        (0.7135340211089242 0.05237310396773949 1)
        (0.7102541835137862 0.05282275912191178 1)
        (0.7069711441821229 0.05327375619231721 1)
        (0.7036716660659822 0.05371945449943397 1)
        (0.7003984410466408 0.05415588450201302 1)
        (0.6971074694897568 0.05460041498017668 1)
        (0.6938191096524082 0.05503136268711648 1)
        (0.6905458846330659 0.05546779268969551 1)
        (0.6872450957807898 0.05590035713775191 1)
        (0.6839554260466589 0.05632483560723046 1)
        (0.68067558845152 0.05674804045821596 1)
        (0.677385914942817 0.05717250950140539 1)
        (0.6740962376866421 0.05759035653144297 1)
        (0.6708065567101525 0.05800819411313471 1)
        (0.6675070213002549 0.058420636036908155 1)
        (0.6642173293262874 0.058825220056778676 1)
        (0.6609362807723262 0.05922873603378813 1)
        (0.6576399820993583 0.05963330818527719 1)
        (0.6543514844013578 0.060031114159047785 1)
        (0.6510605992128512 0.060429198873205144 1)
        (0.6477544272723643 0.060821684416687796 1)
        (0.6444745896772263 0.0612052138128935 1)
        (0.6411771218133024 0.061596647746577256 1)
        (0.6378720807754321 0.06197571649349424 1)
        (0.6345823668627079 0.06235376217771542 1)
        (0.6312849236103779 0.06272531123798261 1)
        (0.6279984734394429 0.06309561548259522 1)
        (0.6247021498453227 0.06346702725880718 1)
        (0.6213959429941691 0.06383290527837854 1)
        (0.6180996096218772 0.064191063171276 1)
        (0.6148032730459501 0.06454921146778687 1)
        (0.611495996427278 0.06490189780606552 1)
        (0.6081930474524627 0.06524679004957865 1)
        (0.6048977328608472 0.06559156653033053 1)
        (0.6016003654353165 0.06592993310589708 1)
        (0.5982974072975554 0.06626818390061014 1)
        (0.5949911573785205 0.06660080261288492 1)
        (0.5916881903311457 0.06692579930266881 1)
        (0.5883918329461965 0.0672507863238653 1)
        (0.5850780014836067 0.06757019278025259 1)
        (0.5817750326418485 0.0678819237279824 1)
        (0.5784720610085575 0.06819364499189268 1)
        (0.575159172227779 0.06849965479712208 1)
        (0.5718462726222789 0.06879901319341727 1)
        (0.5685432874582336 0.06909084818882405 1)
        (0.5652402996736976 0.06938267345218034 1)
        (0.5619273791045003 0.06966872884097774 1)
        (0.55862438363051 0.06994729971042449 1)
        (0.5553205584331004 0.07022592971756066 1)
        (0.5520010247784075 0.07049867860667787 1)
        (0.5486888821693653 0.07076471337802068 1)
        (0.545375153907413 0.07102422141484249 1)
        (0.5420647792154316 0.07127631985091817 1)
        (0.5387559166789326 0.0715282931019962 1)
        (0.5354529072681455 0.07177370166252733 1)
        (0.532132614022672 0.07201987585669872 1)
        (0.5288137481621903 0.07225268194206329 1)
        (0.5255007685097851 0.07248550049526249 1)
        (0.5221805091622644 0.07270509809190503 1)
        (0.5188708781954491 0.072923966494535 1)
        (0.5155612452875407 0.0731362124712267 1)
        (0.5122416490879844 0.07334907242577517 1)
        (0.5089120786237905 0.07354926197622792 1)
        (0.5056018558723469 0.07374164462847627 1)
        (0.5022756453304554 0.07393454605285446 1)
        (0.49894660293201193 0.07411468848420025 1)
        (0.4956369490200314 0.0742871403805796 1)
        (0.49231681224868906 0.07446011246225828 1)
        (0.4889806002110922 0.07462026705163853 1)
        (0.48566096838090594 0.07477327521231311 1)
        (0.4823347185860956 0.07491963108160817 1)
        (0.47901507621548983 0.0750593346279729 1)
        (0.4756884268545254 0.0751924010193919 1)
        (0.4723525618200455 0.07531914963262176 1)
        (0.4690329032914316 0.07543226353278953 1)
        (0.4657063082781567 0.07554534780099977 1)
        (0.4623700622259729 0.0756454501595881 1)
        (0.4590537865002818 0.07573831087375013 1)
        (0.45571778022465137 0.07583167484201117 1)
        (0.4523880998145275 0.07590511899956795 1)
        (0.44907159878691666 0.07597807702801014 1)
        (0.44574532289256463 0.07604460254549768 1)
        (0.4424190447202801 0.07610447555223904 1)
        (0.4390827676636485 0.07615784098952037 1)
        (0.4357564848442402 0.07619777637801446 1)
        (0.43244019893058594 0.07623756680994202 1)
        (0.4291139140418773 0.07627082965862908 1)
        (0.42577762870836017 0.07629750494207345 1)
        (0.42245134157000985 0.07631083008976688 1)
        (0.41913505385668187 0.07632409024070395 1)
        (0.4158087660883559 0.07633074281620054 1)
        (0.4124824782000311 0.07633074281620056 1)
        (0.40915619043170515 0.07632409024070395 1)
        (0.4058299030233692 0.07631078509115059 1)
        (0.4025036162149929 0.07629082737042028 1)
        (0.39917733024650964 0.0762642170828324 1)
        (0.395861043703031 0.07623105921674397 1)
        (0.39253475944414784 0.07619777637801446 1)
        (0.389198479778909 0.07615108345949535 1)
        (0.38588219548449987 0.07609802790902168 1)
        (0.3825659116697827 0.07604496237006923 1)
        (0.37922943911976503 0.07598489047096786 1)
        (0.37590975704965757 0.07591173157536454 1)
        (0.37259369680180243 0.07583877325618606 1)
        (0.3692574359280729 0.0757586880103802 1)
        (0.36593116988978125 0.07566557253998693 1)
        (0.36262488199145626 0.07557299647883392 1)
        (0.35929831941162554 0.07547983214809798 1)
        (0.3559686588225439 0.07537308545610316 1)
        (0.35264273535501806 0.07526000373454153 1)
        (0.34932610667169156 0.07514061008611227 1)
        (0.34601644135082127 0.07502121872192438 1)
        (0.3426905663146826 0.07489483510854279 1)
        (0.339363916953718 0.0747617687171236 1)
        (0.3360442745831133 0.07462206517075896 1)
        (0.3327280050777619 0.07447615386880103 1)
        (0.329418349465775 0.07433023263393751 1)
        (0.32609210505979286 0.07417722447326293 1)
        (0.32277198915194816 0.07401754002264886 1)
        (0.3194528585132319 0.07385125141102156 1)
        (0.3161366003773191 0.07367881045922008 1)
        (0.3128164500152443 0.07350579667180494 1)
        (0.30949738461790044 0.07331957650376594 1)
        (0.30619109671957573 0.07313442438145976 1)
        (0.3028709199413507 0.07294810191133405 1)
        (0.29955130915044753 0.0727485460888801 1)
        (0.29623170553784245 0.07254895075438056 1)
        (0.2929121093382872 0.07233609079983198 1)
        (0.28960247643037806 0.0721238448231403 1)
        (0.28629284546356365 0.07190497642051044 1)
        (0.2829725861160418 0.07168537882386779 1)
        (0.2796596064636369 0.0714525602706686 1)
        (0.276340740603155 0.07121975418530412 1)
        (0.2730211849742258 0.07097363471157164 1)
        (0.2697108253710984 0.0707281714306017 1)
        (0.26639787604094184 0.0704753776237206 1)
        (0.26308826085699427 0.07021671451061264 1)
        (0.2597745274890812 0.06995718533092088 1)
        (0.25645247151525546 0.06968369850223524 1)
        (0.25314287071656905 0.06940513904791122 1)
        (0.24983903826805895 0.06912649762565257 1)
    )
    polyLine 14 18
    (
        (0.246526117698861 0.0688404422368551 0)
        (0.24321320749701228 0.0685477353131445 0)
        (0.2399003078915123 0.06824837691684951 0)
        (0.23658741911073344 0.06794236711162008 0)
        (0.2332735957213716 0.06762961571850315 0)
        (0.2299772325946866 0.0673112606360054 0)
        (0.22666532721230825 0.06699202101082335 0)
        (0.22335148412850853 0.06665932565940297 0)
        (0.2200541299638577 0.06632759495498607 0)
        (0.21673900833122678 0.06598739853880338 0)
        (0.21342617623873125 0.065634845811298 0)
        (0.21012878273773983 0.06528320738121507 0)
        (0.20681268299064226 0.06492289189808143 0)
        (0.2035064826861159 0.06455038215785801 0)
        (0.20019916311620084 0.06417770423377864 0)
        (0.1968995830546331 0.06379188845150317 0)
        (0.1935934041600055 0.06340603452522368 0)
        (0.19029385180450273 0.06300691738514108 0)
        (0.1869877010563146 0.0626077622658763 0)
        (0.1836771003087664 0.06219395459241421 0)
        (0.18037757967124 0.0617748622558739 0)
        (0.17707679443789537 0.061348953112507314 0)
        (0.17378389774706404 0.060916555146135115 0)
        (0.17048440394797 0.0604775069636104 0)
        (0.1671915384076256 0.060031808656493546 0)
        (0.16388226990553142 0.05957809970840902 0)
        (0.16058805924327543 0.05911227441287839 0)
        (0.15730503087600417 0.05864800282424454 0)
        (0.15401221162530065 0.05817569945978164 0)
        (0.15070818306888906 0.05769509564509389 0)
        (0.14742200028861893 0.05720285620234909 0)
        (0.14412922230281416 0.056710579800585414 0)
        (0.14084157248353976 0.056204810432039905 0)
        (0.13755542407121363 0.05569922936761477 0)
        (0.13425954157399866 0.05517884169119655 0)
        (0.13096212216342148 0.05465150347745477 0)
        (0.1276712996694405 0.05411083885071539 0)
        (0.12439182937741605 0.05356536915021211 0)
        (0.12110266008110605 0.053011599700949125 0)
        (0.11780214324091622 0.05244254151599628 0)
        (0.11451966350869325 0.05186212302875998 0)
        (0.11121918612055354 0.051272939027220105 0)
        (0.1079319424847664 0.05066374685602092 0)
        (0.10463993347803122 0.050048121328639894 0)
        (0.10135087678909364 0.04941178879817724 0)
        (0.09807028405878773 0.0487690232221407 0)
        (0.09478205923981022 0.048104692177797975 0)
        (0.09151312838626484 0.047430906835930896 0)
        (0.08823266893868299 0.046747990256040886 0)
        (0.08495678254982261 0.046044622303779835 0)
        (0.08169910443590345 0.04533699956376515 0)
        (0.07843402052878651 0.04461439906073943 0)
        (0.0751785386711201 0.04388059606671759 0)
        (0.07192093414084501 0.04313960524237171 0)
        (0.0686677333895335 0.042384772626524625 0)